/*--------------------------------*- C++ -*----------------------------------*\
| =========                 |                                                 |
| \\      /  F ield         | OpenFOAM: The Open Source CFD Toolbox           |
|  \\    /   O peration     | Version:  v2312                                 |
|   \\  /    A nd           | Website:  www.openfoam.com                      |
|    \\/     M anipulation  |                                                 |
\*---------------------------------------------------------------------------*/
FoamFile
{
    version     2.0;
    format      ascii;
    class       volScalarField;
    object      nut;
}
// * * * * * * * * * * * * * * * * * * * * * * * * * * * * * * * * * * * * * //

dimensions      [0 2 -1 0 0 0 0];

internalField   uniform 0;

boundaryField
{
    MAIN_STREAM_FLOW_INLET
    {
        type            calculated;
        value           uniform 0;
    }
	 MAIN_STREAM_FLOW_OUTLET
    {
        type            zeroGradient;
        
    }
	COOLANT_FLOW_INLET
    {
        type            calculated;
        value           uniform 0;
    }

  
	COOLANT_FLOW_OUTLET
    {
        type            zeroGradient;
        
    }

    MAINSTREAM_FLOW_SIDEWALL
    {
         type            nutkWallFunction;
		 Cmu             0.09;
         kappa           0.41;
         E               9.8;
        value           uniform 0;
    }
	TOP_WALL
    {
         type            nutkWallFunction;
		 Cmu             0.09;
         kappa           0.41;
         E               9.8;
        value           uniform 0;
    }
	PLATE
    {
        type            nutkWallFunction;
		 Cmu             0.09;
         kappa           0.41;
         E               9.8;
         value           uniform 0;
    }
	COOLING_CHANNEL_WALL
    {
        type            nutkWallFunction;
		 Cmu             0.09;
         kappa           0.41;
         E               9.8;
        value           uniform 0;
    }
	PLENUM_WALL
    {
        type            nutkWallFunction;
		 Cmu             0.09;
         kappa           0.41;
         E               9.8;
        value           uniform 0;
    }

   
}


// ************************************************************************* //
